Version 4
SHEET 1 880 680
WIRE 288 -96 288 -112
WIRE 432 -16 400 -16
WIRE 176 144 176 16
WIRE 224 144 176 144
WIRE 400 144 400 -16
WIRE 400 144 352 144
FLAG -96 48 0
FLAG 64 288 0
FLAG -96 288 0
FLAG 432 -16 Vout
FLAG 288 64 0
FLAG -96 160 Vin
FLAG 48 16 Vin
FLAG 64 160 Vref
FLAG 176 -48 Vref
SYMBOL cktsym\\vsource -96 224 R0
WINDOW 123 0 0 Left 0
WINDOW 39 0 0 Left 0
SYMATTR InstName Vin
SYMATTR Value 2.5
SYMBOL cktsym\\vsource -96 -16 R0
WINDOW 123 0 0 Left 0
WINDOW 39 0 0 Left 0
SYMATTR InstName Vdd
SYMATTR Value 5
SYMBOL cktsym\\vsource 64 224 R0
WINDOW 123 0 0 Left 0
WINDOW 39 0 0 Left 0
SYMATTR InstName Vref
SYMATTR Value 2.5
SYMBOL cktsym\\resistor 112 16 R90
WINDOW 3 12 0 VTop 2
WINDOW 0 -12 0 VBottom 2
SYMATTR Value 10K
SYMATTR InstName R1
SYMBOL cktsym\\resistor 288 144 R270
WINDOW 3 -12 0 VBottom 2
WINDOW 0 12 0 VTop 2
SYMATTR Value 20K
SYMATTR InstName R2
SYMBOL cktsym\\vdd_alt 288 -112 R0
SYMATTR InstName U2
SYMBOL cktsym\\vdd_alt -96 -80 R0
SYMATTR InstName U3
SYMBOL cktsym\\opamprails 272 -16 R0
SYMATTR InstName U1
TEXT 192 256 Left 2 !.include engr2420.sub
TEXT 192 296 Left 2 !.dc Vin 0 5 .05 Vref list 1.5 2.5 3.5
