Version 4
SHEET 1 880 680
WIRE 224 80 224 32
WIRE 128 160 0 160
WIRE 160 160 144 160
FLAG 224 368 0
FLAG 0 288 0
FLAG 0 112 0
SYMBOL cktsym\\npn 224 160 R0
SYMATTR InstName 2N3904
SYMATTR Value 2N3904
SYMBOL cktsym\\vsource 0 224 R0
WINDOW 123 0 0 Left 0
WINDOW 39 0 0 Left 0
SYMATTR InstName Vin
SYMATTR Value 5
SYMBOL cktsym\\ammeter1 224 80 R0
SYMATTR InstName Ic
SYMBOL cktsym\\ammeter1 224 224 R0
SYMATTR InstName Ie
SYMBOL cktsym\\ammeter1 128 160 R270
WINDOW 0 18 8 VTop 2
SYMATTR InstName Ib
SYMBOL cktsym\\vdd 224 32 R0
SYMATTR InstName U1
SYMBOL cktsym\\vdd 0 -16 R0
SYMATTR InstName U2
SYMBOL cktsym\\vsource 0 48 R0
WINDOW 0 49 -16 Left 2
SYMATTR InstName Vcc
SYMATTR Value 5
SYMBOL cktsym\\resistor 224 304 R0
SYMATTR Value 10
SYMATTR InstName R1
TEXT -34 488 Left 2 !.dc Vin 0 5 .05
TEXT -32 456 Left 2 !.include engr2420.sub
