Version 4
SHEET 1 880 680
WIRE 192 -96 192 -128
WIRE 192 -48 192 -80
WIRE 80 16 -64 16
WIRE 128 16 96 16
WIRE 192 224 192 208
WIRE 192 288 192 240
FLAG -64 144 0
FLAG 192 288 0
FLAG -64 -32 0
SYMBOL cktsym\\npn 192 16 R0
SYMATTR Value 2N3904
SYMATTR InstName Q1
SYMBOL cktsym\\resistor 192 144 R0
SYMATTR Value {R}
SYMATTR InstName R1
SYMBOL cktsym\\vsource -64 80 R0
SYMATTR Value 5V
SYMATTR InstName Vb
SYMBOL cktsym\\ammeter1 192 -96 R0
SYMATTR InstName Ic
SYMBOL cktsym\\ammeter1 80 16 R270
WINDOW 0 18 8 VTop 2
SYMATTR InstName Ib
SYMBOL cktsym\\ammeter1 192 224 R0
SYMATTR InstName Ie
SYMBOL cktsym\\vsource -64 -96 R0
SYMATTR Value 5V
SYMATTR InstName Vcc
SYMBOL cktsym\\vdd 112 64 R0
SYMATTR InstName U1
SYMBOL cktsym\\vdd -64 -160 R0
SYMATTR InstName U2
SYMBOL cktsym\\vdd 192 -128 R0
SYMATTR InstName U3
TEXT -104 376 Left 2 !.include engr2420.sub
TEXT -104 416 Left 2 !.step param R list 100 1000 10000
