Version 4
SHEET 1 880 680
WIRE 192 -96 192 -128
WIRE 192 -48 192 -80
WIRE 80 16 -64 16
WIRE 128 16 96 16
WIRE 192 96 192 80
WIRE 304 96 192 96
WIRE 192 112 192 96
WIRE 192 256 192 240
WIRE 192 320 192 272
FLAG -64 144 0
FLAG 192 320 0
FLAG 304 96 Vout
FLAG -64 -32 0
SYMBOL cktsym\\npn 192 16 R0
SYMATTR Value 2N3904
SYMATTR InstName Q1
SYMBOL cktsym\\resistor 192 176 R0
SYMATTR Value 1000
SYMATTR InstName R1
SYMBOL cktsym\\vsource -64 80 R0
SYMATTR Value 5V
SYMATTR InstName Vb
SYMBOL cktsym\\ammeter1 192 -96 R0
SYMATTR InstName Ic
SYMBOL cktsym\\ammeter1 80 16 R270
WINDOW 0 18 8 VTop 2
SYMATTR InstName Ib
SYMBOL cktsym\\ammeter1 192 256 R0
SYMATTR InstName Ie
SYMBOL cktsym\\vdd 304 112 R0
SYMATTR InstName U1
SYMBOL cktsym\\vdd 192 -128 R0
SYMATTR InstName U2
SYMBOL cktsym\\vdd -64 -160 R0
SYMATTR InstName U3
SYMBOL cktsym\\vsource -64 -96 R0
SYMATTR Value 5V
SYMATTR InstName Vcc
TEXT -104 376 Left 2 !.include engr2420.sub
