Version 4
SHEET 1 880 680
WIRE 176 -48 176 -112
WIRE 112 16 -64 16
WIRE 176 96 176 80
WIRE 288 96 176 96
WIRE 176 112 176 96
WIRE 176 304 176 240
FLAG -64 144 0
FLAG 176 304 0
FLAG 288 96 Vout
FLAG -64 -32 0
SYMBOL cktsym\\npn 176 16 R0
SYMATTR Value 2N3904
SYMATTR InstName Q1
SYMBOL cktsym\\resistor 176 176 R0
SYMATTR Value 1000
SYMATTR InstName R1
SYMBOL cktsym\\vsource -64 80 R0
SYMATTR Value 5V
SYMATTR InstName Vin
SYMBOL cktsym\\vdd 176 -112 R0
SYMATTR InstName U2
SYMBOL cktsym\\vdd -64 -160 R0
SYMATTR InstName U3
SYMBOL cktsym\\vsource -64 -96 R0
SYMATTR Value 5V
SYMATTR InstName Vcc
TEXT -144 200 Left 2 !.include engr2420.sub
TEXT -144 232 Left 2 !.dc Vin 0 5 0.05
