Version 4
SHEET 1 880 680
WIRE 192 -96 192 -112
WIRE 288 -96 192 -96
WIRE 192 -48 192 -96
WIRE 80 16 -64 16
WIRE 128 16 96 16
WIRE 192 224 192 208
WIRE 192 288 192 240
FLAG -64 144 0
FLAG 192 288 0
FLAG 288 -96 Vout
FLAG -64 -96 0
SYMBOL cktsym\\npn 192 16 R0
SYMATTR Value 2N3904
SYMATTR InstName Q1
SYMBOL cktsym\\resistor 192 144 R0
SYMATTR Value {R}
SYMATTR InstName R1
SYMBOL cktsym\\vsource -64 80 R0
SYMATTR Value 5V
SYMATTR InstName Vb
SYMBOL cktsym\\ammeter1 80 16 R270
WINDOW 0 18 8 VTop 2
SYMATTR InstName Ib
SYMBOL cktsym\\ammeter1 192 224 R0
SYMATTR InstName Ie
SYMBOL cktsym\\resistor 192 -176 R0
SYMATTR Value mR
SYMATTR InstName R2
SYMBOL cktsym\\vdd 192 -240 R0
SYMATTR InstName U1
SYMBOL cktsym\\vdd -64 -224 R0
SYMATTR InstName U2
SYMBOL cktsym\\vsource -64 -160 R0
SYMATTR Value 5V
SYMATTR InstName Vcc
TEXT -120 296 Left 2 !.include engr2420.sub
TEXT -120 336 Left 2 !.step param R list 1000 2000 4000
