Version 4
SHEET 1 2048 680
WIRE 240 144 48 144
WIRE 400 144 368 144
WIRE 496 144 400 144
WIRE 720 144 624 144
WIRE 816 144 720 144
WIRE 1040 144 944 144
WIRE 1136 144 1040 144
WIRE 1360 144 1264 144
WIRE 1456 144 1360 144
WIRE 1680 144 1584 144
WIRE 48 176 48 144
WIRE 400 192 400 144
WIRE 720 192 720 144
WIRE 1040 192 1040 144
WIRE 1360 192 1360 144
WIRE 1680 192 1680 144
WIRE 400 496 400 464
WIRE 720 496 720 464
WIRE 1040 496 1040 464
WIRE 1360 496 1360 464
WIRE 1680 496 1680 320
FLAG 400 496 0
FLAG 720 496 0
FLAG 1040 496 0
FLAG 1360 496 0
FLAG 48 304 0
FLAG 1680 496 0
SYMBOL cktsym\\resistor 304 144 R90
WINDOW 3 14 42 VTop 2
WINDOW 0 -12 0 VBottom 2
SYMATTR Value {R * (1 + gauss(cv))}
SYMATTR InstName R1
SYMBOL cktsym\\resistor 400 256 R180
WINDOW 3 28 -16 Left 2
WINDOW 0 28 16 Left 2
SYMATTR Value {R * (1 + gauss(cv))}
SYMATTR InstName R2
SYMBOL cktsym\\resistor 720 256 R180
WINDOW 3 28 -12 Left 2
WINDOW 0 28 16 Left 2
SYMATTR Value {R * (1 + gauss(cv))}
SYMATTR InstName R3
SYMBOL cktsym\\resistor 560 144 R270
WINDOW 3 -12 0 VBottom 2
WINDOW 0 12 0 VTop 2
SYMATTR Value {R * (1 + gauss(cv))}
SYMATTR InstName R4
SYMBOL cktsym\\resistor 880 144 R270
WINDOW 3 -12 -11 VBottom 2
WINDOW 0 12 0 VTop 2
SYMATTR Value {R * (1 + gauss(cv))}
SYMATTR InstName R5
SYMBOL cktsym\\resistor 1040 256 R180
WINDOW 3 28 -16 Left 2
WINDOW 0 28 16 Left 2
SYMATTR Value {R * (1 + gauss(cv))}
SYMATTR InstName R6
SYMBOL cktsym\\resistor 1360 256 R180
WINDOW 3 28 -16 Left 2
WINDOW 0 28 16 Left 2
SYMATTR Value {R * (1 + gauss(cv))}
SYMATTR InstName R7
SYMBOL cktsym\\resistor 1200 144 R270
WINDOW 3 -12 6 VBottom 2
WINDOW 0 12 0 VTop 2
SYMATTR Value {R * (1 + gauss(cv))}
SYMATTR InstName R8
SYMBOL cktsym\\vsource 48 240 M0
WINDOW 123 0 0 Left 0
WINDOW 39 0 0 Left 0
SYMATTR InstName Vin
SYMATTR Value 0
SYMBOL cktsym\\resistor 1520 144 R270
WINDOW 3 -12 0 VBottom 2
WINDOW 0 12 0 VTop 2
SYMATTR Value {R * (1 + gauss(cv))}
SYMATTR InstName R9
SYMBOL cktsym\\resistor 1680 256 R180
WINDOW 3 28 -16 Left 2
WINDOW 0 28 16 Left 2
SYMATTR Value {R * (1 + gauss(cv))}
SYMATTR InstName R10
SYMBOL cktsym\\resistor 400 384 R180
WINDOW 3 28 -16 Left 2
WINDOW 0 28 16 Left 2
SYMATTR Value {R * (1 + gauss(cv))}
SYMATTR InstName R11
SYMBOL cktsym\\resistor 720 384 R180
WINDOW 3 28 -12 Left 2
WINDOW 0 28 16 Left 2
SYMATTR Value {R * (1 + gauss(cv))}
SYMATTR InstName R12
SYMBOL cktsym\\resistor 1040 384 R180
WINDOW 3 28 -16 Left 2
WINDOW 0 28 16 Left 2
SYMATTR Value {R * (1 + gauss(cv))}
SYMATTR InstName R13
SYMBOL cktsym\\resistor 1360 384 R180
WINDOW 3 28 -16 Left 2
WINDOW 0 28 16 Left 2
SYMATTR Value {R * (1 + gauss(cv))}
SYMATTR InstName R14
SYMBOL cktsym\\ammeter1 400 448 R0
SYMATTR InstName I1
SYMBOL cktsym\\ammeter1 720 448 R0
SYMATTR InstName I2
SYMBOL cktsym\\ammeter1 1040 448 R0
SYMATTR InstName I3
SYMBOL cktsym\\ammeter1 1360 448 R0
SYMATTR InstName I4
TEXT -192 432 Left 2 !.include engr2420.sub
TEXT -192 464 Left 2 !.param R = 10K cv=.002
TEXT -192 496 Left 2 !.step param run 1 500 1
TEXT -190 532 Left 2 !.dc Vin 0 5 .02
